6

 C                  0.00000000    0.00000000   -0.67488700
 H                  0.00000000    0.94447800   -1.21366500
 H                  0.00000000   -0.94447800   -1.21366500
 N                  0.00000000    0.00000000    0.59963600
 H                  0.00000000    0.86746400    1.13960000
 H                  0.00000000   -0.86746400    1.13960000

