         6

         C    -5.53381800     0.71251300     0.40570900
         N    -1.47572200     0.18056900     0.11025600
         H    -6.11872800     1.64386500     2.28957000
         H    -6.63708600    -0.43416700    -1.08592900
         H    -0.85482300    -0.98783200    -1.33432300
         H    -0.40055600     0.85488700     1.60177700
